*SPEF "1481-1998"
*DESIGN "cpu"
*DATE "Mon Feb  3 15:26:31 2014"
*VENDOR "Synopsys, Inc."
*PROGRAM "icc_shell"
*VERSION "H-2013.03-ICC-SP2"
*DESIGN_FLOW "PIN_CAP NONE"
*DIVIDER /
*DELIMITER :
*BUS_DELIMITER [ ]
*T_UNIT 1 NS
*C_UNIT 1 FF
*R_UNIT 1 OHM
*L_UNIT 1 HENRY

*NAME_MAP
*1 rst
*2 clk
*3 imem_data[7]
*4 imem_data[6]
*5 imem_data[5]
*6 imem_data[4]
*7 imem_data[3]
*8 imem_data[2]
*9 imem_data[1]
*10 imem_data[0]
*11 imem_addr[7]
*12 imem_addr[6]
*13 imem_addr[5]
*14 imem_addr[4]
*15 imem_addr[3]
*16 imem_addr[2]
*17 imem_addr[1]
*18 imem_addr[0]
*19 dmem_port_write
*20 dmem_port_value[7]
*21 dmem_port_value[6]
*22 dmem_port_value[5]
*23 dmem_port_value[4]
*24 dmem_port_value[3]
*25 dmem_port_value[2]
*26 dmem_port_value[1]
*27 dmem_port_value[0]
*28 dmem_port_addr[7]
*29 dmem_port_addr[6]
*30 dmem_port_addr[5]
*31 dmem_port_addr[4]
*32 dmem_port_addr[3]
*33 dmem_port_addr[2]
*34 dmem_port_addr[1]
*35 dmem_port_addr[0]
*36 vdd
*37 gnd
*38 pc/clk_gate_addr_out_reg/main_gate
*39 pc/clk_gate_addr_out_reg/U2
*40 regs/clk_gate_acc_reg/main_gate
*41 regs/clk_gate_acc_reg/U2
*42 regs/clk_gate_imem_reg/main_gate
*43 regs/clk_gate_imem_reg/U2
*44 regs/clk_gate_psr_reg/main_gate
*45 regs/clk_gate_psr_reg/U2
*46 regs/clk_gate_opcode_reg/main_gate
*47 regs/clk_gate_opcode_reg/U2
*48 mcu/INVX0_G1B3I1
*49 regs/net365
*50 regs/opcode_reg_7_
*51 regs/opcode_reg_6_
*52 regs/opcode_reg_5_
*53 regs/opcode_reg_4_
*54 regs/opcode_reg_3_
*55 regs/opcode_reg_2_
*56 regs/opcode_reg_1_
*57 regs/opcode_reg_0_
*58 regs/net370
*59 regs/psr_reg_0_
*60 regs/psr_reg_2_
*61 regs/psr_reg_1_
*62 regs/net375
*63 regs/imem_reg_7_
*64 regs/imem_reg_6_
*65 regs/imem_reg_5_
*66 regs/imem_reg_4_
*67 regs/imem_reg_3_
*68 regs/imem_reg_2_
*69 regs/imem_reg_1_
*70 regs/imem_reg_0_
*71 regs/net385
*72 regs/acc_reg_0_
*73 regs/acc_reg_4_
*74 regs/acc_reg_5_
*75 regs/acc_reg_7_
*76 regs/acc_reg_6_
*77 regs/acc_reg_1_
*78 regs/acc_reg_3_
*79 regs/acc_reg_2_
*80 pc/net350
*81 pc/addr_out_reg_7_
*82 pc/addr_out_reg_0_
*83 pc/addr_out_reg_4_
*84 pc/addr_out_reg_5_
*85 pc/addr_out_reg_6_
*86 pc/addr_out_reg_1_
*87 pc/addr_out_reg_3_
*88 pc/addr_out_reg_2_
*89 regs/clk_gate_opcode_reg/n1
*90 regs/clk_gate_opcode_reg/latch
*91 regs/clk_gate_psr_reg/n2
*92 regs/clk_gate_psr_reg/latch
*93 regs/clk_gate_imem_reg/n2
*94 regs/clk_gate_imem_reg/latch
*95 regs/clk_gate_acc_reg/n2
*96 regs/clk_gate_acc_reg/latch
*97 pc/clk_gate_addr_out_reg/n1
*98 pc/clk_gate_addr_out_reg/latch
*99 mcu/clk_G1B2I1
*100 mcu/state_reg_1_
*101 mcu/state_reg_0_
*102 mcu/INVX0_G1B1I1
*103 mcu/clk_G1B1I1
*104 mcu/U17
*105 ram_port/U2
*106 ram_port/U8
*107 ram_port/U10
*108 ram_port/U9
*109 ram_port/port_value_tri_0_
*110 ram_port/U7
*111 ram_port/U5
*112 ram_port/U6
*113 ram_port/U4
*114 n6
*115 U1
*116 n7
*117 U2
*118 imem_update
*119 mcu/U21
*120 pc/U14
*121 pc/U6
*122 opcode_update
*123 mcu/U20
*124 opcode\[7\]
*125 mcu/U30
*126 mcu/U16
*127 n2
*128 mcu/U27
*129 opcode\[5\]
*130 mcu/U43
*131 opcode\[4\]
*132 opcode\[3\]
*133 n4
*134 mcu/U10
*135 mcu/U18
*136 mcu/U5
*137 opcode\[1\]
*138 mcu/U40
*139 mcu/U13
*140 mcu/U11
*141 mcu/U44
*142 mcu/U6
*143 opcode\[0\]
*144 mcu/U14
*145 mcu/U35
*146 mcu/U15
*147 mcu/U8
*148 psr_update
*149 mcu/U47
*150 res_update
*151 mcu/U45
*152 mcu/res_sel_reg_1_
*153 mcu/res_sel_reg_0_
*154 res_sel\[1\]
*155 regs/U34
*156 regs/U68
*157 res_sel\[0\]
*158 regs/U67
*159 opa_sel\[1\]
*160 mcu/alu_opa_sel_reg_1_
*161 regs/U76
*162 regs/U10
*163 regs/U77
*164 opa_sel\[0\]
*165 mcu/alu_opa_sel_reg_0_
*166 regs/U9
*167 opb_sel\[1\]
*168 mcu/alu_opb_sel_reg_1_
*169 regs/U32
*170 regs/U57
*171 regs/U33
*172 opb_sel\[0\]
*173 mcu/alu_opb_sel_reg_0_
*174 regs/U78
*175 regs/U21
*176 regs/U75
*177 regs/U74
*178 regs/U73
*179 regs/U72
*180 regs/U71
*181 regs/U70
*182 regs/U69
*183 regs/U3
*184 regs/U8
*185 pc/U40
*186 regs/U6
*187 regs/U27
*188 pc/U24
*189 pc/U39
*190 regs/U4
*191 regs/U7
*192 pc/U29
*193 regs/U23
*194 regs/U13
*195 pc/U25
*196 pc/U36
*197 pc/U28
*198 regs/U44
*199 regs/U43
*200 regs/U11
*201 regs/U41
*202 pc/U3
*203 pc/U34
*204 regs/U5
*205 regs/U12
*206 pc/U9
*207 pc/U32
*208 regs/U28
*209 regs/U14
*210 regs/U24
*211 regs/U42
*212 alu/U157
*213 pc/U27
*214 alu/U27
*215 pc/U26
*216 alu/U237
*217 pc/U23
*218 alu/U235
*219 pc/U22
*220 alu/U233
*221 pc/U19
*222 alu/U231
*223 pc/U21
*224 alu/U229
*225 pc/U18
*226 alu/U24
*227 pc/U20
*228 alu_operation\[3\]
*229 mcu/U38
*230 alu/U224
*231 alu/U35
*232 alu/U14
*233 alu/U41
*234 alu/U198
*235 opb\[7\]
*236 alu/U65
*237 alu/U68
*238 alu/DP_OP_35J1_124_9704_U2
*239 alu/add_x_1_U2
*240 alu/DP_OP_36J1_125_9744__cell_865
*241 opb\[6\]
*242 alu/U203
*243 alu/U113
*244 alu/add_x_1_U3
*245 alu/DP_OP_35J1_124_9704_U3
*246 alu/U16
*247 opb\[5\]
*248 alu/U218
*249 alu/U66
*250 alu/U75
*251 alu/DP_OP_35J1_124_9704_U4
*252 alu/U90
*253 alu/add_x_1_U4
*254 opb\[4\]
*255 regs/U61
*256 alu/U64
*257 alu/DP_OP_35J1_124_9704_U5
*258 alu/U73
*259 alu/add_x_1_U5
*260 alu/U74
*261 opb\[3\]
*262 regs/U60
*263 alu/DP_OP_35J1_124_9704_U6
*264 alu/U76
*265 alu/U67
*266 alu/U72
*267 alu/add_x_1_U6
*268 opb\[2\]
*269 regs/U50
*270 alu/U112
*271 alu/U63
*272 alu/add_x_1_U7
*273 alu/U62
*274 alu/U10
*275 opb\[1\]
*276 regs/U59
*277 alu/DP_OP_35J1_124_9704_U8
*278 alu/U195
*279 alu/U61
*280 alu/add_x_1_U8
*281 alu/U171
*282 n3
*283 alu/DP_OP_35J1_124_9704_U9
*284 regs/U58
*285 alu/U156
*286 alu/U147
*287 alu/U125
*288 alu/U215
*289 alu/U114
*290 alu_operation\[2\]
*291 alu/U2
*292 alu/U140
*293 alu/U48
*294 alu/U9
*295 alu/U79
*296 alu/U204
*297 alu/U180
*298 alu/U176
*299 alu_operation\[1\]
*300 alu/U185
*301 alu/U60
*302 alu_operation\[0\]
*303 alu/U50
*304 alu/U78
*305 alu/U51
*306 opa\[7\]
*307 opa\[6\]
*308 regs/U31
*309 alu/U136
*310 alu/DP_OP_36J1_125_9744_U19
*311 opa\[5\]
*312 alu/DP_OP_36J1_125_9744_U20
*313 opa\[4\]
*314 regs/U38
*315 alu/U151
*316 opa\[3\]
*317 regs/U65
*318 alu/U149
*319 opa\[2\]
*320 regs/U66
*321 alu/DP_OP_36J1_125_9744_U23
*322 n1
*323 alu/U11
*324 opa\[0\]
*325 alu/U47
*326 regs/U36
*327 psr\[2\]
*328 mcu/U34
*329 psr\[1\]
*330 mcu/U46
*331 alu/U142
*332 alu/U153
*333 psr\[0\]
*334 apsr\[2\]
*335 alu/U42
*336 apsr\[1\]
*337 apsr\[0\]
*338 pc_load
*339 mcu/U33
*340 pc/U4
*341 ram_port/n1
*342 alu/n23
*343 alu/U4
*344 alu/U55
*345 alu/n24
*346 alu/U225
*347 alu/U111
*348 alu/U110
*349 alu/U88
*350 alu/U217
*351 alu/U201
*352 alu/U202
*353 alu/U101
*354 alu/U36
*355 alu/n171
*356 alu/U232
*357 alu/n172
*358 alu/U168
*359 alu/U187
*360 alu/U89
*361 alu/n173
*362 alu/n174
*363 alu/n175
*364 alu/U214
*365 alu/U169
*366 alu/n176
*367 alu/U220
*368 alu/U58
*369 alu/U222
*370 alu/n177
*371 alu/U223
*372 alu/U104
*373 alu/n178
*374 alu/U234
*375 alu/U59
*376 alu/n179
*377 alu/n180
*378 alu/n181
*379 alu/n182
*380 alu/U158
*381 alu/n183
*382 alu/n184
*383 alu/n185
*384 alu/U213
*385 alu/U170
*386 alu/n186
*387 alu/U33
*388 alu/U103
*389 alu/U80
*390 alu/n187
*391 alu/U32
*392 alu/U83
*393 alu/n188
*394 alu/U236
*395 alu/U97
*396 alu/n189
*397 alu/n190
*398 alu/n191
*399 alu/n192
*400 alu/U189
*401 alu/n193
*402 alu/n194
*403 alu/n196
*404 alu/U109
*405 alu/U105
*406 alu/U84
*407 alu/U87
*408 alu/U98
*409 alu/U102
*410 alu/U99
*411 alu/U70
*412 alu/n197
*413 alu/U209
*414 alu/n198
*415 alu/U200
*416 alu/U107
*417 alu/U108
*418 alu/U106
*419 alu/U28
*420 alu/U133
*421 alu/U100
*422 alu/n199
*423 alu/U15
*424 alu/n200
*425 alu/U37
*426 alu/n202
*427 alu/U192
*428 alu/U190
*429 alu/U193
*430 alu/U191
*431 alu/U40
*432 alu/U54
*433 alu/U197
*434 alu/n203
*435 alu/U172
*436 alu/n131
*437 alu/U206
*438 alu/n132
*439 alu/n133
*440 alu/U179
*441 alu/U135
*442 alu/n134
*443 alu/U216
*444 alu/n135
*445 alu/U194
*446 alu/U221
*447 alu/U163
*448 alu/n136
*449 alu/U86
*450 alu/n137
*451 alu/U226
*452 alu/n138
*453 alu/n139
*454 alu/n140
*455 alu/n141
*456 alu/U219
*457 alu/n142
*458 alu/n144
*459 alu/n145
*460 alu/U164
*461 alu/n146
*462 alu/U160
*463 alu/n147
*464 alu/n148
*465 alu/U228
*466 alu/n149
*467 alu/n150
*468 alu/n151
*469 alu/n152
*470 alu/U165
*471 alu/U186
*472 alu/n153
*473 alu/n154
*474 alu/n155
*475 alu/U166
*476 alu/n156
*477 alu/U161
*478 alu/n157
*479 alu/n158
*480 alu/U230
*481 alu/n159
*482 alu/n160
*483 alu/n161
*484 alu/n162
*485 alu/U167
*486 alu/U188
*487 alu/n163
*488 alu/n164
*489 alu/n165
*490 alu/n166
*491 alu/U162
*492 alu/n167
*493 alu/n168
*494 alu/n169
*495 alu/n170
*496 alu/n96
*497 alu/n97
*498 alu/n98
*499 alu/U208
*500 alu/n99
*501 alu/U207
*502 alu/n100
*503 alu/n101
*504 alu/U210
*505 alu/n102
*506 alu/U82
*507 alu/n103
*508 alu/U212
*509 alu/n104
*510 alu/U211
*511 alu/n105
*512 alu/U29
*513 alu/n106
*514 alu/n107
*515 alu/n108
*516 alu/n109
*517 alu/n110
*518 alu/n111
*519 alu/n112
*520 alu/U30
*521 alu/n113
*522 alu/n114
*523 alu/U178
*524 alu/n115
*525 alu/n116
*526 alu/n117
*527 alu/n118
*528 alu/n119
*529 alu/n120
*530 alu/n121
*531 alu/U31
*532 alu/n123
*533 alu/n124
*534 alu/n125
*535 alu/n126
*536 alu/n127
*537 alu/U174
*538 alu/U131
*539 alu/n128
*540 alu/U139
*541 alu/n129
*542 alu/n130
*543 alu/n51
*544 alu/U96
*545 alu/U155
*546 alu/n52
*547 alu/n53
*548 alu/n54
*549 alu/n56
*550 alu/n57
*551 alu/U3
*552 alu/n59
*553 alu/U46
*554 alu/U150
*555 alu/n60
*556 alu/U154
*557 alu/U152
*558 alu/n61
*559 alu/U205
*560 alu/n62
*561 alu/U45
*562 alu/n63
*563 alu/n64
*564 alu/U199
*565 alu/U177
*566 alu/n65
*567 alu/n66
*568 alu/n67
*569 alu/n68
*570 alu/n69
*571 alu/n70
*572 alu/n71
*573 alu/n72
*574 alu/n73
*575 alu/n74
*576 alu/n77
*577 alu/n78
*578 alu/U5
*579 alu/n79
*580 alu/n80
*581 alu/n8
*582 alu/U34
*583 alu/n9
*584 alu/n10
*585 alu/n11
*586 alu/n12
*587 alu/n13
*588 alu/U38
*589 alu/n14
*590 alu/U39
*591 alu/n15
*592 alu/n17
*593 alu/n25
*594 alu/U26
*595 alu/n26
*596 alu/n37
*597 alu/n42
*598 alu/n45
*599 alu/DP_OP_36J1_125_9744__cell_876
*600 alu/U143
*601 alu/n46
*602 alu/DP_OP_36J1_125_9744__cell_875
*603 alu/DP_OP_36J1_125_9744__cell_874
*604 alu/n47
*605 alu/U144
*606 alu/U21
*607 alu/n48
*608 alu/U145
*609 alu/n49
*610 alu/U146
*611 alu/n50
*612 alu/U81
*613 alu/N120
*614 alu/N121
*615 alu/DP_OP_36J1_125_9744_n16
*616 alu/DP_OP_36J1_125_9744_n15
*617 alu/DP_OP_36J1_125_9744_n14
*618 alu/DP_OP_36J1_125_9744_n13
*619 alu/DP_OP_36J1_125_9744_n12
*620 alu/DP_OP_36J1_125_9744_n11
*621 alu/DP_OP_36J1_125_9744_n10
*622 alu/DP_OP_35J1_124_9704_n8
*623 alu/DP_OP_35J1_124_9704_n7
*624 alu/DP_OP_35J1_124_9704_n6
*625 alu/DP_OP_35J1_124_9704_n5
*626 alu/DP_OP_35J1_124_9704_n4
*627 alu/DP_OP_35J1_124_9704_n3
*628 alu/DP_OP_35J1_124_9704_n2
*629 alu/add_x_1_n8
*630 alu/add_x_1_n7
*631 alu/add_x_1_n6
*632 alu/add_x_1_n5
*633 alu/add_x_1_n4
*634 alu/add_x_1_n3
*635 alu/add_x_1_n2
*636 alu/n4
*637 alu/n5
*638 alu/n6
*639 alu/n7
*640 alu/N68
*641 alu/N69
*642 alu/N70
*643 alu/N71
*644 alu/N72
*645 alu/N73
*646 alu/N74
*647 alu/N75
*648 alu/N76
*649 alu/N87
*650 alu/N88
*651 alu/N89
*652 alu/N90
*653 alu/N91
*654 alu/N92
*655 alu/N93
*656 alu/N94
*657 alu/N95
*658 alu/N97
*659 alu/N98
*660 alu/N99
*661 alu/N100
*662 alu/N101
*663 alu/N102
*664 alu/N103
*665 alu/N104
*666 alu/N114
*667 alu/N115
*668 alu/N116
*669 alu/N117
*670 alu/N118
*671 alu/N119
*672 pc/n31
*673 pc/U38
*674 pc/n32
*675 pc/n33
*676 pc/n34
*677 pc/n35
*678 pc/n36
*679 pc/n37
*680 pc/N13
*681 pc/N14
*682 pc/N15
*683 pc/N16
*684 pc/N17
*685 pc/N18
*686 pc/N19
*687 pc/N20
*688 pc/n2
*689 pc/n7
*690 pc/U35
*691 pc/n13
*692 pc/n17
*693 pc/n21
*694 pc/n22
*695 pc/U33
*696 pc/n23
*697 pc/n24
*698 pc/n25
*699 pc/n26
*700 pc/n27
*701 pc/n28
*702 pc/n29
*703 pc/N3
*704 regs/n57
*705 regs/U37
*706 regs/n20
*707 regs/n21
*708 regs/U22
*709 regs/n22
*710 regs/n23
*711 regs/n24
*712 regs/n25
*713 regs/U49
*714 regs/n26
*715 regs/U48
*716 regs/n27
*717 regs/n28
*718 regs/U52
*719 regs/n29
*720 regs/U51
*721 regs/n30
*722 regs/n31
*723 regs/U16
*724 regs/n32
*725 regs/U19
*726 regs/n33
*727 regs/n34
*728 regs/U45
*729 regs/n35
*730 regs/U30
*731 regs/n36
*732 regs/U18
*733 regs/n37
*734 regs/U17
*735 regs/n38
*736 regs/n39
*737 regs/n40
*738 regs/n41
*739 regs/U29
*740 regs/n42
*741 regs/U25
*742 regs/n43
*743 regs/n44
*744 regs/U47
*745 regs/n45
*746 regs/U46
*747 regs/n46
*748 regs/U2
*749 regs/n47
*750 regs/U62
*751 regs/U15
*752 regs/n48
*753 regs/U20
*754 regs/n49
*755 regs/n50
*756 regs/U54
*757 regs/n51
*758 regs/U53
*759 regs/n52
*760 regs/n53
*761 regs/U56
*762 regs/n54
*763 regs/U55
*764 regs/n55
*765 regs/n56
*766 regs/imem\[7\]
*767 regs/imem\[6\]
*768 regs/imem\[5\]
*769 regs/imem\[4\]
*770 regs/imem\[3\]
*771 regs/imem\[2\]
*772 regs/imem\[1\]
*773 regs/imem\[0\]
*774 regs/acc\[7\]
*775 regs/acc\[6\]
*776 regs/acc\[5\]
*777 regs/acc\[4\]
*778 regs/acc\[3\]
*779 regs/acc\[2\]
*780 regs/acc\[1\]
*781 regs/acc\[0\]
*782 regs/N19
*783 regs/N20
*784 regs/N21
*785 regs/N22
*786 regs/N23
*787 regs/N24
*788 regs/N25
*789 regs/N26
*790 regs/U40
*791 regs/n2
*792 regs/n5
*793 regs/n6
*794 regs/n7
*795 regs/n8
*796 regs/U63
*797 regs/n9
*798 regs/n10
*799 regs/n11
*800 regs/n12
*801 regs/n13
*802 regs/n14
*803 mcu/state_0_
*804 mcu/N30
*805 mcu/U32
*806 mcu/N104
*807 mcu/U39
*808 mcu/N105
*809 mcu/U4
*810 mcu/U42
*811 mcu/N106
*812 mcu/N107
*813 mcu/U31
*814 mcu/N123
*815 mcu/U36
*816 mcu/n42
*817 mcu/U3
*818 mcu/n43
*819 mcu/n2
*820 mcu/n3
*821 mcu/U12
*822 mcu/U29
*823 mcu/U37
*824 mcu/n6
*825 mcu/n7
*826 mcu/U28
*827 mcu/U23
*828 mcu/n9
*829 mcu/U7
*830 mcu/n10
*831 mcu/n11
*832 mcu/U41
*833 mcu/n12
*834 mcu/n13
*835 mcu/n14
*836 mcu/U24
*837 mcu/U25
*838 mcu/n15
*839 mcu/n16
*840 mcu/U26
*841 mcu/n17
*842 mcu/n18
*843 mcu/n19
*844 mcu/n20
*845 mcu/n21
*846 mcu/n22
*847 mcu/n23
*848 mcu/n24
*849 mcu/n25
*850 mcu/n26
*851 mcu/n27
*852 mcu/n29
*853 mcu/n30
*854 mcu/n31
*855 pc/clk_gate_addr_out_reg/net344
*856 regs/clk_gate_acc_reg/net359
*857 regs/clk_gate_imem_reg/net359
*858 regs/clk_gate_psr_reg/net359
*859 regs/clk_gate_opcode_reg/net359

*PORTS
*1 I *L 0.0 *S 0.0 0.0
*2 I *L 0.0 *S 0.0 0.0
*3 I *L 0.0 *S 0.0 0.0
*4 I *L 0.0 *S 0.0 0.0
*5 I *L 0.0 *S 0.0 0.0
*6 I *L 0.0 *S 0.0 0.0
*7 I *L 0.0 *S 0.0 0.0
*8 I *L 0.0 *S 0.0 0.0
*9 I *L 0.0 *S 0.0 0.0
*10 I *L 0.0 *S 0.0 0.0
*11 O *L 0.0 *S 0.0 0.0
*12 O *L 0.0 *S 0.0 0.0
*13 O *L 0.0 *S 0.0 0.0
*14 O *L 0.0 *S 0.0 0.0
*15 O *L 0.0 *S 0.0 0.0
*16 O *L 0.0 *S 0.0 0.0
*17 O *L 0.0 *S 0.0 0.0
*18 O *L 0.0 *S 0.0 0.0
*19 O *L 0.0 *S 0.0 0.0
*20 I *L 0.0 *S 0.0 0.0
*21 I *L 0.0 *S 0.0 0.0
*22 I *L 0.0 *S 0.0 0.0
*23 I *L 0.0 *S 0.0 0.0
*24 I *L 0.0 *S 0.0 0.0
*25 I *L 0.0 *S 0.0 0.0
*26 I *L 0.0 *S 0.0 0.0
*27 I *L 0.0 *S 0.0 0.0
*28 O *L 0.0 *S 0.0 0.0
*29 O *L 0.0 *S 0.0 0.0
*30 O *L 0.0 *S 0.0 0.0
*31 O *L 0.0 *S 0.0 0.0
*32 O *L 0.0 *S 0.0 0.0
*33 O *L 0.0 *S 0.0 0.0
*34 O *L 0.0 *S 0.0 0.0
*35 O *L 0.0 *S 0.0 0.0
*36 I *L 0.0 *S 0.0 0.0
*37 I *L 0.0 *S 0.0 0.0

*D_NET *2 22.86734

*CONN
*I *38:IN2 I *L 1481.443 *C 94.84 20.91
*I *39:INP I *L 1605.741 *C 126.592 11.467
*I *40:IN2 I *L 1481.443 *C 39.8 43.95
*I *41:INP I *L 1605.741 *C 125.07 11.48
*I *42:IN2 I *L 1481.443 *C 22.84 44.93
*I *43:INP I *L 1605.741 *C 7.65 19.8
*I *44:IN2 I *L 1481.443 *C 83.96 10.52
*I *45:INP I *L 1605.741 *C 18.21 8.28
*I *46:IN2 I *L 1481.443 *C 11.96 39.17
*I *47:INP I *L 1605.741 *C 8.59 17.24
*I *48:INP I *L 1605.741 *C 16.29 14.04
*P *2 I *C 0.08 17.24
*N *2:13 *C 83.96 10.52
*N *2:14 *C 83.96 10.99
*N *2:15 *C 8.59 17.24
*N *2:16 *C 8.44 17.39
*N *2:17 *C 22.84 44.93
*N *2:18 *C 22.84 45.23
*N *2:19 *C 23.31 45.08
*N *2:20 *C 23.31 45.08
*N *2:21 *C 94.84 20.91
*N *2:22 *C 94.84 20.61
*N *2:23 *C 94.99 20.76
*N *2:24 *C 94.99 11.48
*N *2:25 *C 94.99 11.48
*N *2:26 *C 7.65 19.8
*N *2:27 *C 7.8 19.95
*N *2:28 *C 7.95 19.8
*N *2:29 *C 125.07 11.48
*N *2:30 *C 124.92 11.63
*N *2:31 *C 18.21 8.28
*N *2:32 *C 18.36 8.43
*N *2:33 *C 18.19 8.28
*N *2:34 *C 16.29 14.04
*N *2:35 *C 16.44 13.55
*N *2:36 *C 16.44 13.55
*N *2:37 *C 17.55 13.4
*N *2:38 *C 17.55 13.4
*N *2:39 *C 126.05 11.48
*N *2:40 *C 126.05 11.48
*N *2:41 *C 126.2 11.63
*N *2:42 *C 7.95 39.0
*N *2:43 *C 7.95 39.0
*N *2:44 *C 23.31 39.0
*N *2:45 *C 23.31 39.0
*N *2:46 *C 18.19 10.84
*N *2:47 *C 18.19 10.84
*N *2:48 *C 8.44 17.24
*N *2:49 *C 8.44 17.24
*N *2:50 *C 17.55 17.24
*N *2:51 *C 17.55 17.24
*N *2:52 *C 11.96 39.17
*N *2:53 *C 11.96 39.15
*N *2:54 *C 39.8 43.95
*N *2:55 *C 39.8 43.63
*N *2:56 *C 23.31 43.48
*N *2:57 *C 23.31 43.48
*N *2:58 *C 83.96 11.48
*N *2:59 *C 7.8 17.24
*N *2:60 *C 18.04 13.4
*N *2:61 *C 67.92 10.84

*CAP
1 *38:IN2 0.01535423
2 *39:INP 0.05330738
3 *40:IN2 0.01531138
4 *41:INP 0.03968995
5 *42:IN2 0.01527844
6 *43:INP 0.03954687
7 *44:IN2 0.0
8 *45:INP 0.04202222
9 *46:IN2 0.01436054
10 *47:INP 0.03916492
11 *48:INP 0.03873145
12 *2 0.4323241
13 *2:13 0.02829638
14 *2:14 0.922411
15 *2:15 0.07025437
16 *2:16 0.4721629
17 *2:17 0.04563945
18 *2:18 0.06107033
19 *2:19 0.07749882
20 *2:20 0.02921868
21 *2:21 0.0504283
22 *2:22 0.05642447
23 *2:23 0.5111924
24 *2:24 0.4826815
25 *2:25 2.159865
26 *2:26 0.0699124
27 *2:27 0.0498632
28 *2:28 1.078395
29 *2:29 0.07261513
30 *2:30 1.680905
31 *2:31 0.07367027
32 *2:32 0.05012666
33 *2:33 0.1429384
34 *2:34 0.09574368
35 *2:35 0.06836649
36 *2:36 0.04920391
37 *2:37 0.1912629
38 *2:38 0.0679451
39 *2:39 0.02618612
40 *2:40 0.04656832
41 *2:41 0.1118329
42 *2:42 0.9297491
43 *2:43 0.2144174
44 *2:44 0.1967288
45 *2:45 0.5804524
46 *2:46 0.244714
47 *2:47 2.62549
48 *2:48 0.01631874
49 *2:49 0.4948194
50 *2:50 0.1794295
51 *2:51 0.479331
52 *2:52 0.0442242
53 *2:53 0.8344538
54 *2:54 0.04632241
55 *2:55 0.8652618
56 *2:56 0.2824573
57 *2:57 0.8327601
58 *2:58 0.616666
59 *2:59 0.1465359
60 *2:60 0.1392481
61 *2:61 3.510192

*RES
1 *2:13 *44:IN2 0.45
2 *2:14 *2:13 0.45
3 *2:15 *47:INP 0.45
4 *2:16 *2:15 0.45
5 *2:17 *42:IN2 0.45
6 *2:18 *2:17 0.45
7 *2:19 *2:20 0.45
8 *2:21 *38:IN2 0.45
9 *2:22 *2:21 0.45
10 *2:23 *2:22 0.45
11 *2:24 *2:25 0.45
12 *2:26 *43:INP 0.45
13 *2:27 *2:26 0.45
14 *2:28 *2:27 0.45
15 *2:29 *41:INP 0.45
16 *2:30 *2:29 0.45
17 *2:31 *45:INP 0.45
18 *2:32 *2:31 0.45
19 *2:33 *2:32 0.45
20 *2:34 *48:INP 0.45
21 *2:35 *2:36 0.45
22 *2:37 *2:38 0.45
23 *2:39 *2:40 0.45
24 *2:41 *2:39 0.45
25 *2:42 *2:43 0.45
26 *2:44 *2:45 0.45
27 *2:46 *2:47 0.45
28 *2:48 *2:49 0.45
29 *2:50 *2:51 0.45
30 *2:52 *46:IN2 0.45
31 *2:53 *2:52 0.45
32 *2:54 *40:IN2 0.45
33 *2:55 *2:54 0.45
34 *2:56 *2:57 0.45
35 *2:40 *39:INP 0.3487501
36 *2:36 *2:34 0.3825001
37 *2 *2:16 4.657501
38 *2:16 *2:49 0.09000002
39 *2:49 *2:51 5.276251
40 *2:43 *2:53 2.407501
41 *2:53 *2:45 6.536252
42 *2:35 *2:38 0.7087501
43 *2:61 *2:14 9.011251
44 *2:18 *2:20 0.3487501
45 *2:57 *2:55 9.360002
46 *2:14 *2:58 0.3628125
47 *2:58 *2:25 6.159376
48 *2:25 *2:30 16.83563
49 *2:30 *2:41 0.6525001
50 *2:59 *2:48 0.5568751
51 *2:59 *2:28 1.395
52 *2:28 *2:42 10.7325
53 *2:37 *2:50 2.08125
54 *2:37 *2:60 0.2784376
55 *2:33 *2:46 1.3725
56 *2:46 *2:60 1.395
57 *2:44 *2:56 2.4525
58 *2:56 *2:19 0.8325
59 *2:24 *2:23 5.085001
60 *2:61 *2:47 28.12501

*END

*D_NET *49 4.575701

*CONN
*I *46:Q O *L 0.0 *D AND2X2 *C 11.0 39.49
*I *50:CLK I *L 1076.054 *C 8.29 31.64
*I *51:CLK I *L 1076.054 *C 8.29 37.4
*I *52:CLK I *L 1076.054 *C 8.59 48.92
*I *53:CLK I *L 1076.054 *C 8.29 51.48
*I *54:CLK I *L 1076.054 *C 8.59 45.72
*I *55:CLK I *L 1076.054 *C 8.29 34.2
*I *56:CLK I *L 1076.054 *C 9.25 28.44
*I *57:CLK I *L 1076.054 *C 11.49 25.88
*N *49:10 *C 8.29 31.64
*N *49:11 *C 8.44 31.81
*N *49:12 *C 8.59 31.96
*N *49:13 *C 8.29 37.4
*N *49:14 *C 8.44 37.57
*N *49:15 *C 8.59 37.72
*N *49:16 *C 8.59 45.72
*N *49:17 *C 8.44 45.25
*N *49:18 *C 8.44 45.25
*N *49:19 *C 8.59 45.4
*N *49:20 *C 8.29 51.48
*N *49:21 *C 8.44 51.33
*N *49:22 *C 8.59 51.48
*N *49:23 *C 8.29 34.2
*N *49:24 *C 8.44 33.73
*N *49:25 *C 8.44 33.73
*N *49:26 *C 8.59 33.88
*N *49:27 *C 9.25 28.44
*N *49:28 *C 9.4 28.27
*N *49:29 *C 9.72 28.27
*N *49:30 *C 9.72 28.27
*N *49:31 *C 8.59 48.92
*N *49:32 *C 8.44 49.09
*N *49:33 *C 8.59 49.24
*N *49:34 *C 11.49 25.88
*N *49:35 *C 11.64 26.99
*N *49:36 *C 11.64 26.99
*N *49:37 *C 9.87 26.84
*N *49:38 *C 9.87 26.84
*N *49:39 *C 11.0 39.49
*N *49:40 *C 11.0 39.79
*N *49:41 *C 8.59 39.64
*N *49:42 *C 8.59 39.64
*N *49:43 *C 9.08 31.96
*N *49:44 *C 9.08 28.12
*N *49:45 *C 9.72 28.12

*CAP
1 *46:Q 0.0
2 *50:CLK 0.04199474
3 *51:CLK 0.04197828
4 *52:CLK 0.04198293
5 *53:CLK 0.04198293
6 *54:CLK 0.04198293
7 *55:CLK 0.04080627
8 *56:CLK 0.04199474
9 *57:CLK 0.03837486
10 *49:10 0.07342369
11 *49:11 0.04890946
12 *49:12 0.1182652
13 *49:13 0.07322981
14 *49:14 0.04746523
15 *49:15 0.3084868
16 *49:16 0.09160168
17 *49:17 0.01617189
18 *49:18 0.04181043
19 *49:19 0.4968318
20 *49:20 0.0721406
21 *49:21 0.04672061
22 *49:22 0.1360156
23 *49:23 0.09387068
24 *49:24 0.01514444
25 *49:25 0.0452561
26 *49:26 0.2957495
27 *49:27 0.07342369
28 *49:28 0.05393161
29 *49:29 0.07765231
30 *49:30 0.02101201
31 *49:31 0.0732834
32 *49:32 0.04786341
33 *49:33 0.3274724
34 *49:34 0.1285547
35 *49:35 0.09338879
36 *49:36 0.08237157
37 *49:37 0.05664608
38 *49:38 0.0929674
39 *49:39 0.02319426
40 *49:40 0.167612
41 *49:41 0.3837486
42 *49:42 0.1361881
43 *49:43 0.1875045
44 *49:44 0.1928754
45 *49:45 0.003819315

*RES
1 *49:10 *50:CLK 0.45
2 *49:11 *49:10 0.45
3 *49:12 *49:11 0.45
4 *49:13 *51:CLK 0.45
5 *49:14 *49:13 0.45
6 *49:15 *49:14 0.45
7 *49:16 *54:CLK 0.45
8 *49:17 *49:18 0.45
9 *49:19 *49:17 0.45
10 *49:20 *53:CLK 0.45
11 *49:21 *49:20 0.45
12 *49:22 *49:21 0.45
13 *49:23 *55:CLK 0.45
14 *49:24 *49:25 0.45
15 *49:26 *49:24 0.45
16 *49:27 *56:CLK 0.45
17 *49:28 *49:27 0.45
18 *49:29 *49:30 0.45
19 *49:31 *52:CLK 0.45
20 *49:32 *49:31 0.45
21 *49:33 *49:32 0.45
22 *49:34 *57:CLK 0.45
23 *49:35 *49:36 0.45
24 *49:37 *49:38 0.45
25 *49:39 *46:Q 0.45
26 *49:40 *49:39 0.45
27 *49:41 *49:42 0.45
28 *49:25 *49:23 0.3712501
29 *49:18 *49:16 0.3487501
30 *49:34 *49:36 0.7312501
31 *49:42 *49:40 1.44
32 *49:28 *49:30 0.1095652
33 *49:38 *49:35 1.08
34 *49:12 *49:26 1.06875
35 *49:26 *49:15 2.16
36 *49:15 *49:41 1.08
37 *49:41 *49:19 3.240001
38 *49:19 *49:33 2.16
39 *49:33 *49:22 1.1925
40 *49:12 *49:43 0.2784375
41 *49:44 *49:29 0.4050001
42 *49:29 *49:45 0.04500001
43 *49:44 *49:43 2.07
44 *49:37 *49:29 0.6412501

*END

*D_NET *58 6.316539

*CONN
*I *44:Q O *L 0.0 *D AND2X2 *C 83.0 10.35
*I *59:CLK I *L 1076.054 *C 101.71 8.6
*I *60:CLK I *L 1076.054 *C 113.23 8.6
*I *61:CLK I *L 1076.054 *C 51.81 11.16
*N *58:5 *C 101.71 8.6
*N *58:6 *C 101.56 8.45
*N *58:7 *C 101.71 8.6
*N *58:8 *C 113.23 8.6
*N *58:9 *C 113.08 8.13
*N *58:10 *C 113.08 8.13
*N *58:11 *C 112.93 8.28
*N *58:12 *C 113.08 8.43
*N *58:13 *C 101.56 8.43
*N *58:14 *C 101.56 9.71
*N *58:15 *C 101.56 9.71
*N *58:16 *C 51.81 11.16
*N *58:17 *C 51.96 11.33
*N *58:18 *C 52.11 11.48
*N *58:19 *C 51.96 10.99
*N *58:20 *C 51.96 10.99
*N *58:21 *C 83.0 10.35
*N *58:22 *C 83.0 10.35
*N *58:23 *C 82.83 10.2
*N *58:24 *C 82.68 10.99
*N *58:25 *C 82.68 10.99
*N *58:26 *C 99.96 10.84
*N *58:27 *C 99.96 9.56

*CAP
1 *44:Q 0.0
2 *59:CLK 0.04205891
3 *60:CLK 0.04206154
4 *61:CLK 0.04209118
5 *58:5 0.07496222
6 *58:6 0.05204387
7 *58:7 0.1112838
8 *58:8 0.09598129
9 *58:9 0.01833509
10 *58:10 0.04611143
11 *58:11 0.0437551
12 *58:12 0.5006889
13 *58:13 0.4749844
14 *58:14 0.05907173
15 *58:15 0.0849828
16 *58:16 0.07750024
17 *58:17 0.05630201
18 *58:18 0.0635746
19 *58:19 1.289206
20 *58:20 0.03523669
21 *58:21 0.02856614
22 *58:22 0.05774109
23 *58:23 0.08205764
24 *58:24 2.027417
25 *58:25 0.05217679
26 *58:26 0.7644869
27 *58:27 0.09386125

*RES
1 *58:5 *59:CLK 0.45
2 *58:6 *58:5 0.45
3 *58:7 *58:6 0.45
4 *58:8 *60:CLK 0.45
5 *58:9 *58:10 0.45
6 *58:11 *58:9 0.45
7 *58:12 *58:11 0.45
8 *58:13 *58:7 0.45
9 *58:14 *58:15 0.45
10 *58:16 *61:CLK 0.45
11 *58:17 *58:16 0.45
12 *58:18 *58:17 0.45
13 *58:19 *58:20 0.45
14 *58:21 *44:Q 0.45
15 *58:22 *58:21 0.45
16 *58:23 *58:22 0.45
17 *58:24 *58:25 0.45
18 *58:10 *58:8 0.34875
19 *58:20 *58:18 0.3600001
20 *58:23 *58:25 0.5287501
21 *58:7 *58:15 0.7706251
22 *58:19 *58:24 17.2125
23 *58:24 *58:26 9.765003
24 *58:27 *58:26 0.7200001
25 *58:27 *58:14 0.7875001
26 *58:13 *58:12 6.345001

*END

*D_NET *62 6.255644

*CONN
*I *42:Q O *L 0.0 *D AND2X2 *C 23.8 45.57
*I *63:CLK I *L 1076.054 *C 19.81 37.4
*I *64:CLK I *L 1076.054 *C 19.49 51.48
*I *65:CLK I *L 1076.054 *C 26.21 54.68
*I *66:CLK I *L 1076.054 *C 14.35 54.68
*I *67:CLK I *L 1076.054 *C 28.45 48.92
*I *68:CLK I *L 1076.054 *C 18.53 43.16
*I *69:CLK I *L 1076.054 *C 18.53 39.96
*I *70:CLK I *L 1076.054 *C 19.49 34.2
*N *62:10 *C 19.49 51.48
*N *62:11 *C 19.64 51.95
*N *62:12 *C 19.64 51.95
*N *62:13 *C 26.21 54.68
*N *62:14 *C 26.36 53.57
*N *62:15 *C 26.36 53.57
*N *62:16 *C 26.51 53.72
*N *62:17 *C 26.51 49.88
*N *62:18 *C 26.51 49.88
*N *62:19 *C 18.53 39.96
*N *62:20 *C 18.68 39.79
*N *62:21 *C 18.53 43.16
*N *62:22 *C 18.68 43.33
*N *62:23 *C 18.83 43.48
*N *62:24 *C 18.83 39.64
*N *62:25 *C 23.95 49.88
*N *62:26 *C 23.95 49.88
*N *62:27 *C 14.35 54.68
*N *62:28 *C 14.2 53.57
*N *62:29 *C 14.2 53.57
*N *62:30 *C 14.35 53.72
*N *62:31 *C 14.35 51.8
*N *62:32 *C 14.35 51.8
*N *62:33 *C 19.49 34.2
*N *62:34 *C 19.64 35.31
*N *62:35 *C 19.64 35.31
*N *62:36 *C 20.11 35.16
*N *62:37 *C 20.11 35.16
*N *62:38 *C 20.11 39.64
*N *62:39 *C 20.11 39.64
*N *62:40 *C 23.95 51.8
*N *62:41 *C 23.95 51.8
*N *62:42 *C 28.45 48.92
*N *62:43 *C 28.6 50.03
*N *62:44 *C 28.6 50.03
*N *62:45 *C 23.95 46.68
*N *62:46 *C 23.95 46.68
*N *62:47 *C 18.83 46.68
*N *62:48 *C 18.83 46.68
*N *62:49 *C 23.8 45.57
*N *62:50 *C 23.8 46.83
*N *62:51 *C 19.81 37.4
*N *62:52 *C 19.96 37.57
*N *62:53 *C 20.11 37.72

*CAP
1 *42:Q 0.0
2 *63:CLK 0.04200792
3 *64:CLK 0.0408357
4 *65:CLK 0.03972038
5 *66:CLK 0.04196382
6 *67:CLK 0.04083832
7 *68:CLK 0.03925876
8 *69:CLK 0.03925876
9 *70:CLK 0.04082981
10 *62:10 0.09427487
11 *62:11 0.4607928
12 *62:12 0.04563085
13 *62:13 0.1258494
14 *62:14 0.01520413
15 *62:15 0.07832067
16 *62:16 0.1980609
17 *62:17 0.174627
18 *62:18 0.235364
19 *62:19 0.0714554
20 *62:20 0.1217663
21 *62:21 0.0714554
22 *62:22 0.0516035
23 *62:23 0.368936
24 *62:24 0.1778886
25 *62:25 0.2504318
26 *62:26 0.1301461
27 *62:27 0.1252896
28 *62:28 0.01531304
29 *62:29 0.07551749
30 *62:30 0.1101495
31 *62:31 0.08660678
32 *62:32 0.2427574
33 *62:33 0.1327311
34 *62:34 0.03119533
35 *62:35 0.08409297
36 *62:36 0.1149563
37 *62:37 0.03077394
38 *62:38 0.09347361
39 *62:39 0.08850035
40 *62:40 0.09614035
41 *62:41 0.2093843
42 *62:42 0.1329846
43 *62:43 0.0974096
44 *62:44 0.08433793
45 *62:45 0.1460617
46 *62:46 0.2726249
47 *62:47 0.1562504
48 *62:48 0.2722035
49 *62:49 0.09757104
50 *62:50 0.09767379
51 *62:51 0.07480554
52 *62:52 0.04964764
53 *62:53 0.2406701

*RES
1 *62:10 *64:CLK 0.45
2 *62:11 *62:12 0.45
3 *62:13 *65:CLK 0.45
4 *62:14 *62:15 0.45
5 *62:16 *62:14 0.45
6 *62:17 *62:18 0.45
7 *62:19 *69:CLK 0.45
8 *62:20 *62:19 0.45
9 *62:21 *68:CLK 0.45
10 *62:22 *62:21 0.45
11 *62:23 *62:22 0.45
12 *62:24 *62:20 0.45
13 *62:25 *62:26 0.45
14 *62:27 *66:CLK 0.45
15 *62:28 *62:29 0.45
16 *62:30 *62:28 0.45
17 *62:31 *62:32 0.45
18 *62:33 *70:CLK 0.45
19 *62:34 *62:35 0.45
20 *62:36 *62:37 0.45
21 *62:38 *62:39 0.45
22 *62:40 *62:41 0.45
23 *62:42 *67:CLK 0.45
24 *62:43 *62:44 0.45
25 *62:45 *62:46 0.45
26 *62:47 *62:48 0.45
27 *62:49 *42:Q 0.45
28 *62:46 *62:50 0.45
29 *62:51 *63:CLK 0.45
30 *62:52 *62:51 0.45
31 *62:53 *62:52 0.45
32 *62:29 *62:27 0.7087501
33 *62:33 *62:35 0.73125
34 *62:10 *62:12 0.3712502
35 *62:49 *62:50 1.0125
36 *62:15 *62:13 0.73125
37 *62:42 *62:44 0.73125
38 *62:32 *62:11 3.127501
39 *62:11 *62:41 2.57625
40 *62:20 *62:39 0.8184376
41 *62:48 *62:46 2.93625
42 *62:34 *62:37 0.3487501
43 *62:26 *62:18 1.591875
44 *62:18 *62:43 1.108125
45 *62:31 *62:30 0.9450001
46 *62:24 *62:23 2.0925
47 *62:23 *62:47 1.7325
48 *62:36 *62:53 1.3725
49 *62:53 *62:38 1.0125
50 *62:45 *62:25 1.7325
51 *62:25 *62:40 1.0125
52 *62:17 *62:16 2.025001

*END

*D_NET *71 6.592896

*CONN
*I *40:Q O *L 0.0 *D AND2X2 *C 40.76 43.31
*I *72:CLK I *L 1076.054 *C 42.21 28.44
*I *73:CLK I *L 1076.054 *C 31.01 45.72
*I *74:CLK I *L 1076.054 *C 45.41 43.16
*I *75:CLK I *L 1076.054 *C 37.73 39.96
*I *76:CLK I *L 1076.054 *C 38.05 54.68
*I *77:CLK I *L 1076.054 *C 37.09 31.64
*I *78:CLK I *L 1076.054 *C 39.97 51.48
*I *79:CLK I *L 1076.054 *C 35.81 37.4
*N *71:10 *C 31.01 45.72
*N *71:11 *C 31.16 45.55
*N *71:12 *C 39.31 45.4
*N *71:13 *C 39.31 45.4
*N *71:14 *C 38.05 54.68
*N *71:15 *C 38.2 53.87
*N *71:16 *C 38.2 53.87
*N *71:17 *C 39.31 53.72
*N *71:18 *C 39.31 53.72
*N *71:19 *C 45.41 43.16
*N *71:20 *C 45.56 42.99
*N *71:21 *C 39.97 51.48
*N *71:22 *C 40.12 51.95
*N *71:23 *C 40.12 51.95
*N *71:24 *C 39.31 51.8
*N *71:25 *C 39.31 51.8
*N *71:26 *C 35.81 37.4
*N *71:27 *C 35.96 37.87
*N *71:28 *C 35.96 37.87
*N *71:29 *C 37.39 37.72
*N *71:30 *C 37.39 37.72
*N *71:31 *C 37.09 31.64
*N *71:32 *C 37.24 31.81
*N *71:33 *C 37.39 31.96
*N *71:34 *C 40.76 43.31
*N *71:35 *C 40.76 42.99
*N *71:36 *C 42.21 28.44
*N *71:37 *C 42.36 29.55
*N *71:38 *C 42.36 29.55
*N *71:39 *C 37.39 29.4
*N *71:40 *C 37.39 29.4
*N *71:41 *C 38.03 42.84
*N *71:42 *C 38.03 42.84
*N *71:43 *C 39.31 42.84
*N *71:44 *C 39.31 42.84
*N *71:45 *C 37.73 39.96
*N *71:46 *C 37.88 39.49
*N *71:47 *C 37.88 39.49
*N *71:48 *C 38.03 39.64
*N *71:49 *C 37.88 37.72

*CAP
1 *40:Q 0.0
2 *72:CLK 0.04087847
3 *73:CLK 0.04201033
4 *74:CLK 0.04206838
5 *75:CLK 0.03982394
6 *76:CLK 0.03541337
7 *77:CLK 0.0420574
8 *78:CLK 0.04086521
9 *79:CLK 0.04088061
10 *71:10 0.074219
11 *71:11 0.4420211
12 *71:12 0.4287676
13 *71:13 0.4083218
14 *71:14 0.1065768
15 *71:15 0.06126345
16 *71:16 0.06335507
17 *71:17 0.09502458
18 *71:18 0.06084206
19 *71:19 0.07654398
20 *71:20 0.30546
21 *71:21 0.09572177
22 *71:22 0.04841466
23 *71:23 0.04704824
24 *71:24 0.4043518
25 *71:25 0.04799327
26 *71:26 0.0978931
27 *71:27 0.08512186
28 *71:28 0.04920418
29 *71:29 0.2958091
30 *71:30 0.08470048
31 *71:31 0.07577829
32 *71:32 0.053761
33 *71:33 0.4366915
34 *71:34 0.02427198
35 *71:35 0.3804706
36 *71:36 0.1370568
37 *71:37 0.2696695
38 *71:38 0.08837001
39 *71:39 0.1210017
40 *71:40 0.2692481
41 *71:41 0.1571819
42 *71:42 0.07305018
43 *71:43 0.1194404
44 *71:44 0.1515253
45 *71:45 0.09452272